tests/data/pglib-opf/pglib_opf_case14_ieee.json
{"version": "1.0", "type": "input", "is_batch": false, "attributes": {}, "data": {"node": [{"id": 1, "u_rated": 1.0}, {"id": 2, "u_rated": 1.0}, {"id": 3, "u_rated": 1.0}, {"id": 4, "u_rated": 1.0}, {"id": 5, "u_rated": 1.0}, {"id": 6, "u_rated": 1.0}, {"id": 7, "u_rated": 1.0}, {"id": 8, "u_rated": 1.0}, {"id": 9, "u_rated": 1.0}, {"id": 10, "u_rated": 1.0}, {"id": 11, "u_rated": 1.0}, {"id": 12, "u_rated": 1.0}, {"id": 13, "u_rated": 1.0}, {"id": 14, "u_rated": 1.0}], "line": [{"id": 10000022, "from_node": 1, "to_node": 2, "from_status": 1, "to_status": 1, "r1": 1.9380000000000002e-10, "x1": 5.917e-10, "c1": 16806.761990504147, "tan1": 0.0, "r0": 1.9380000000000002e-10, "x0": 5.917e-10, "c0": 16806.761990504147, "tan0": 0.0}, {"id": 10000023, "from_node": 1, "to_node": 5, "from_status": 1, "to_status": 1, "r1": 5.403e-10, "x1": 2.2304e-09, "c1": 15660.8464002425, "tan1": 0.0, "r0": 5.403e-10, "x0": 2.2304e-09, "c0": 15660.8464002425, "tan0": 0.0}, {"id": 10000024, "from_node": 2, "to_node": 3, "from_status": 1, "to_status": 1, "r1": 4.699e-10, "x1": 1.9797e-09, "c1": 13941.973014850031, "tan1": 0.0, "r0": 4.699e-10, "x0": 1.9797e-09, "c0": 13941.973014850031, "tan0": 0.0}, {"id": 10000025, "from_node": 2, "to_node": 4, "from_status": 1, "to_status": 1, "r1": 5.811e-10, "x1": 1.7632e-09, "c1": 10822.536130248884, "tan1": 0.0, "r0": 5.811e-10, "x0": 1.7632e-09, "c0": 10822.536130248884, "tan0": 0.0}, {"id": 10000026, "from_node": 2, "to_node": 5, "from_status": 1, "to_status": 1, "r1": 5.695e-10, "x1": 1.7388e-09, "c1": 11013.522061959156, "tan1": 0.0, "r0": 5.695e-10, "x0": 1.7388e-09, "c0": 11013.522061959156, "tan0": 0.0}, {"id": 10000027, "from_node": 3, "to_node": 4, "from_status": 1, "to_status": 1, "r1": 6.701e-10, "x1": 1.7103e-09, "c1": 4074.3665431525205, "tan1": 0.0, "r0": 6.701e-10, "x0": 1.7103e-09, "c0": 4074.3665431525205, "tan0": 0.0}, {"id": 10000028, "from_node": 4, "to_node": 5, "from_status": 1, "to_status": 1, "r1": 1.335e-10, "x1": 4.211e-10, "c1": 0.0, "tan1": 0.0, "r0": 1.335e-10, "x0": 4.211e-10, "c0": 0.0, "tan0": 0.0}, {"id": 10000032, "from_node": 6, "to_node": 11, "from_status": 1, "to_status": 1, "r1": 9.498e-10, "x1": 1.989e-09, "c1": 0.0, "tan1": 0.0, "r0": 9.498e-10, "x0": 1.989e-09, "c0": 0.0, "tan0": 0.0}, {"id": 10000033, "from_node": 6, "to_node": 12, "from_status": 1, "to_status": 1, "r1": 1.2291e-09, "x1": 2.5580999999999997e-09, "c1": 0.0, "tan1": 0.0, "r0": 1.2291e-09, "x0": 2.5580999999999997e-09, "c0": 0.0, "tan0": 0.0}, {"id": 10000034, "from_node": 6, "to_node": 13, "from_status": 1, "to_status": 1, "r1": 6.615e-10, "x1": 1.3027e-09, "c1": 0.0, "tan1": 0.0, "r0": 6.615e-10, "x0": 1.3027e-09, "c0": 0.0, "tan0": 0.0}, {"id": 10000035, "from_node": 7, "to_node": 8, "from_status": 1, "to_status": 1, "r1": 0.0, "x1": 1.7615e-09, "c1": 0.0, "tan1": 0.0, "r0": 0.0, "x0": 1.7615e-09, "c0": 0.0, "tan0": 0.0}, {"id": 10000036, "from_node": 7, "to_node": 9, "from_status": 1, "to_status": 1, "r1": 0.0, "x1": 1.1001e-09, "c1": 0.0, "tan1": 0.0, "r0": 0.0, "x0": 1.1001e-09, "c0": 0.0, "tan0": 0.0}, {"id": 10000037, "from_node": 9, "to_node": 10, "from_status": 1, "to_status": 1, "r1": 3.1809999999999997e-10, "x1": 8.450000000000001e-10, "c1": 0.0, "tan1": 0.0, "r0": 3.1809999999999997e-10, "x0": 8.450000000000001e-10, "c0": 0.0, "tan0": 0.0}, {"id": 10000038, "from_node": 9, "to_node": 14, "from_status": 1, "to_status": 1, "r1": 1.2711e-09, "x1": 2.7038e-09, "c1": 0.0, "tan1": 0.0, "r0": 1.2711e-09, "x0": 2.7038e-09, "c0": 0.0, "tan0": 0.0}, {"id": 10000039, "from_node": 10, "to_node": 11, "from_status": 1, "to_status": 1, "r1": 8.205e-10, "x1": 1.9206999999999998e-09, "c1": 0.0, "tan1": 0.0, "r0": 8.205e-10, "x0": 1.9206999999999998e-09, "c0": 0.0, "tan0": 0.0}, {"id": 10000040, "from_node": 12, "to_node": 13, "from_status": 1, "to_status": 1, "r1": 2.2092e-09, "x1": 1.9988e-09, "c1": 0.0, "tan1": 0.0, "r0": 2.2092e-09, "x0": 1.9988e-09, "c0": 0.0, "tan0": 0.0}, {"id": 10000041, "from_node": 13, "to_node": 14, "from_status": 1, "to_status": 1, "r1": 1.7093e-09, "x1": 3.4802e-09, "c1": 0.0, "tan1": 0.0, "r0": 1.7093e-09, "x0": 3.4802e-09, "c0": 0.0, "tan0": 0.0}], "source": [{"id": 10000013, "node": 1, "status": 1, "u_ref": 1.0, "sk": 10000000000.0, "rx_ratio": 0.1}], "sym_load": [{"id": 10000001, "node": 2, "status": 1, "type": 0, "p_specified": 21700000.0, "q_specified": 12700000.0}, {"id": 10000002, "node": 3, "status": 1, "type": 0, "p_specified": 94200000.0, "q_specified": 19000000.0}, {"id": 10000003, "node": 4, "status": 1, "type": 0, "p_specified": 47800000.0, "q_specified": -3900000.0}, {"id": 10000004, "node": 5, "status": 1, "type": 0, "p_specified": 7600000.0, "q_specified": 1600000.0}, {"id": 10000005, "node": 6, "status": 1, "type": 0, "p_specified": 11200000.0, "q_specified": 7500000.0}, {"id": 10000006, "node": 9, "status": 1, "type": 0, "p_specified": 29500000.0, "q_specified": 16600000.000000002}, {"id": 10000008, "node": 10, "status": 1, "type": 0, "p_specified": 9000000.0, "q_specified": 5800000.0}, {"id": 10000009, "node": 11, "status": 1, "type": 0, "p_specified": 3500000.0, "q_specified": 1800000.0}, {"id": 10000010, "node": 12, "status": 1, "type": 0, "p_specified": 6100000.0, "q_specified": 1600000.0}, {"id": 10000011, "node": 13, "status": 1, "type": 0, "p_specified": 13500000.0, "q_specified": 5800000.0}, {"id": 10000012, "node": 14, "status": 1, "type": 0, "p_specified": 14900000.0, "q_specified": 5000000.0}], "sym_gen": [{"id": 10000014, "node": 2, "status": 1, "type": 0, "p_specified": 29500000.0, "q_specified": 0.0}, {"id": 10000016, "node": 3, "status": 1, "type": 0, "p_specified": 0.0, "q_specified": 0.0}, {"id": 10000018, "node": 6, "status": 1, "type": 0, "p_specified": 0.0, "q_specified": 0.0}, {"id": 10000020, "node": 8, "status": 1, "type": 0, "p_specified": 0.0, "q_specified": 0.0}], "shunt": [{"id": 10000007, "node": 9, "status": 1, "g1": 0.0, "b1": 19000000.0, "g0": 0.0, "b0": 19000000.0}], "transformer": [{"id": 10000029, "from_node": 4, "to_node": 7, "from_status": 1, "to_status": 1, "u1": 1.0, "u2": 1.0, "sn": 100000000.0, "uk": 0.20912, "pk": 0.0, "i0": 0.0, "p0": 0.0, "winding_from": 1, "winding_to": 1, "clock": 0, "tap_side": 0, "tap_pos": 0, "tap_min": 0, "tap_max": 1, "tap_nom": 1, "tap_size": 0.02200000000000002}, {"id": 10000030, "from_node": 4, "to_node": 9, "from_status": 1, "to_status": 1, "u1": 1.0, "u2": 1.0, "sn": 100000000.0, "uk": 0.55618, "pk": 0.0, "i0": 0.0, "p0": 0.0, "winding_from": 1, "winding_to": 1, "clock": 0, "tap_side": 0, "tap_pos": 0, "tap_min": 0, "tap_max": 1, "tap_nom": 1, "tap_size": 0.031000000000000028}, {"id": 10000031, "from_node": 5, "to_node": 6, "from_status": 1, "to_status": 1, "u1": 1.0, "u2": 1.0, "sn": 100000000.0, "uk": 0.25202, "pk": 0.0, "i0": 0.0, "p0": 0.0, "winding_from": 1, "winding_to": 1, "clock": 0, "tap_side": 0, "tap_pos": 0, "tap_min": 0, "tap_max": 1, "tap_nom": 1, "tap_size": 0.06799999999999995}], "voltage_regulator": [{"id": 10000015, "regulated_object": 10000014, "status": 1, "u_ref": 1.0, "q_min": -30000000.0, "q_max": 30000000.0}, {"id": 10000017, "regulated_object": 10000016, "status": 1, "u_ref": 1.0, "q_min": 0.0, "q_max": 40000000.0}, {"id": 10000019, "regulated_object": 10000018, "status": 1, "u_ref": 1.0, "q_min": -6000000.0, "q_max": 24000000.0}, {"id": 10000021, "regulated_object": 10000020, "status": 1, "u_ref": 1.0, "q_min": -6000000.0, "q_max": 24000000.0}]}}